Global frequency set at 1000000000000 ticks per second
gem5 Simulator System.  https://www.gem5.org
gem5 is copyrighted software; use the --copyright option for details.

gem5 version 22.1.0.0
gem5 compiled Mar  3 2023 23:25:03
gem5 started Apr 12 2023 20:39:59
gem5 executing on dcc-core-11, pid 2723559
command line: /hpc/group/brownlab/fjm7/gem5/build/X86/gem5-mesi.fast -d /hpc/group/brownlab/fjm7/new-data-collection/cores_4/ferret/simsmall/l2_3MB/run_4 /hpc/group/brownlab/fjm7/gem5/configs/example/fs.py --checkpoint-dir=/hpc/group/brownlab/fjm7/checkpoints/not-quiesced/cores_4/ferret/simsmall --checkpoint-restore=2 --kernel=/hpc/group/brownlab/fjm7/ubuntu_images/kernel/vmlinux-5.4.49 --disk-image=/hpc/group/brownlab/fjm7/ubuntu_images/disk/x86-ubuntu-18_04-parsec --cpu-type=O3CPU -n 4 --ruby --mem-size=3GiB --l2cache --num-l2caches=1 --l1d_size=32kB --l1i_size=32kB --l2_size=3MB --l1d_assoc=8 --l2_assoc=16 --param system.ruby.l2_cntrl0.l2_response_latency=16 --param system.ruby.l2_cntrl0.l2_request_latency=16

info: Standard input is not a terminal, disabling listeners.
Switch at curTick count:10000
Switched CPUS @ tick 4588445499500
switching cpus
**** REAL SIMULATION ****
Total ruby extra latency: 3296177
Exiting @ tick 5057627327500 because m5_exit instruction encountered
